xflr5 v6.61

A03 V1
T1-10.0 m/s-Panel-Inviscid
QInf  =   10.000000 m/s
Alpha =   10.000000
Beta  =    0.000°
Phi   =    0.000°
Ctrl  =    0.000
CL    =    1.162666
Cy    =    0.000000
Cd    =    0.051127     ICd   =    0.051127     PCd   =    0.000000
Cl   = 4.08804e-16
Cm   =    -1.40652
ICn   =   -0.000000     PCn   =   -0.000000 
XCP   =    3.463926     YCP   =   -0.000000     ZCP   =    0.394792  
XNP   =    0.000000
Bending = 8823.408655

Main Wing
  y-span        Chord      Ai         Cl        PCd          ICd        CmGeom    CmAirf@chord/4    XTrtop    XTrBot      XCP       BM
  -10.8964     1.2947   -10.180    0.377489    0.000000    0.067787   -2.137939    0.004939     0.0000    0.0000    0.2354    0.0000
  -10.8219     1.3134    -6.951    0.619765    0.000000    0.075548   -3.054054   -0.023985     0.0000    0.0000    0.2805    0.0861
  -10.6736     1.3506    -5.804    0.840481    0.000000    0.085403   -3.785873   -0.025432     0.0000    0.0000    0.2722    1.1133
  -10.4523     1.4062    -4.879    1.012644    0.000000    0.086415   -4.335243   -0.042639     0.0000    0.0000    0.2843    5.5979
  -10.1596     1.4796    -4.077    1.134380    0.000000    0.080815   -4.553480   -0.059819     0.0000    0.0000    0.2950   18.3407
   -9.7976     1.5705    -3.419    1.212477    0.000000    0.072384   -4.482982   -0.072536     0.0000    0.0000    0.3022   46.7586
   -9.3686     1.6782    -2.926    1.256948    0.000000    0.064171   -4.214636   -0.080739     0.0000    0.0000    0.3066   100.9796
   -8.8756     1.8020    -2.590    1.277286    0.000000    0.057695   -3.833503   -0.085621     0.0000    0.0000    0.3094   193.7792
   -8.3219     1.9409    -2.385    1.280797    0.000000    0.053247   -3.402218   -0.088349     0.0000    0.0000    0.3114   340.4005
   -7.7115     2.0942    -2.279    1.272516    0.000000    0.050540   -2.961787   -0.089733     0.0000    0.0000    0.3130   558.2548
   -7.0483     2.2607    -2.246    1.255704    0.000000    0.049130   -2.536845   -0.090283     0.0000    0.0000    0.3145   866.4794
   -6.3370     2.4392    -2.264    1.232385    0.000000    0.048596   -2.140977   -0.090314     0.0000    0.0000    0.3159   1285.3311
   -5.5825     2.6286    -2.318    1.203734    0.000000    0.048575   -1.780766   -0.090022     0.0000    0.0000    0.3176   1835.4058
   -4.7897     2.8276    -2.394    1.170342    0.000000    0.048753   -1.458515   -0.089576     0.0000    0.0000    0.3195   2536.6912
   -3.9643     3.0348    -2.479    1.132361    0.000000    0.048813   -1.174055   -0.089150     0.0000    0.0000    0.3218   3407.4745
   -3.1118     3.2488    -2.557    1.089603    0.000000    0.048395   -0.926077   -0.089072     0.0000    0.0000    0.3251   4463.1409
   -2.2380     3.4682    -2.601    1.041540    0.000000    0.046956   -0.713052   -0.090040     0.0000    0.0000    0.3302   5714.9168
   -1.3490     3.6914    -2.561    0.987180    0.000000    0.043538   -0.534335   -0.093774     0.0000    0.0000    0.3394   7168.6123
   -0.4507     3.9169    -2.322    0.920850    0.000000    0.035440   -0.392641   -0.105824     0.0000    0.0000    0.3608   8823.4087
    0.4507     3.9169    -2.322    0.920850    0.000000    0.035440   -0.392641   -0.105824     0.0000    0.0000    0.3608   8823.4087
    1.3490     3.6914    -2.561    0.987180    0.000000    0.043538   -0.534335   -0.093774     0.0000    0.0000    0.3394   7168.6123
    2.2380     3.4682    -2.601    1.041540    0.000000    0.046956   -0.713052   -0.090040     0.0000    0.0000    0.3302   5714.9168
    3.1118     3.2488    -2.557    1.089603    0.000000    0.048395   -0.926077   -0.089072     0.0000    0.0000    0.3251   4463.1409
    3.9643     3.0348    -2.479    1.132361    0.000000    0.048813   -1.174055   -0.089150     0.0000    0.0000    0.3218   3407.4745
    4.7897     2.8276    -2.394    1.170342    0.000000    0.048753   -1.458515   -0.089576     0.0000    0.0000    0.3195   2536.6912
    5.5825     2.6286    -2.318    1.203734    0.000000    0.048575   -1.780766   -0.090022     0.0000    0.0000    0.3176   1835.4058
    6.3370     2.4392    -2.264    1.232385    0.000000    0.048596   -2.140977   -0.090314     0.0000    0.0000    0.3159   1285.3311
    7.0483     2.2607    -2.246    1.255704    0.000000    0.049130   -2.536845   -0.090283     0.0000    0.0000    0.3145   866.4794
    7.7115     2.0942    -2.279    1.272516    0.000000    0.050540   -2.961787   -0.089733     0.0000    0.0000    0.3130   558.2548
    8.3219     1.9409    -2.385    1.280797    0.000000    0.053247   -3.402218   -0.088349     0.0000    0.0000    0.3114   340.4005
    8.8756     1.8020    -2.590    1.277286    0.000000    0.057695   -3.833503   -0.085621     0.0000    0.0000    0.3094   193.7792
    9.3686     1.6782    -2.926    1.256948    0.000000    0.064171   -4.214636   -0.080739     0.0000    0.0000    0.3066   100.9796
    9.7976     1.5705    -3.419    1.212477    0.000000    0.072384   -4.482982   -0.072536     0.0000    0.0000    0.3022   46.7586
   10.1596     1.4796    -4.077    1.134380    0.000000    0.080815   -4.553480   -0.059819     0.0000    0.0000    0.2950   18.3407
   10.4523     1.4062    -4.879    1.012644    0.000000    0.086415   -4.335243   -0.042639     0.0000    0.0000    0.2843    5.5979
   10.6736     1.3506    -5.804    0.840481    0.000000    0.085403   -3.785873   -0.025432     0.0000    0.0000    0.2722    1.1133
   10.8219     1.3134    -6.951    0.619765    0.000000    0.075548   -3.054054   -0.023985     0.0000    0.0000    0.2805    0.0861
   10.8964     1.2947   -10.180    0.377489    0.000000    0.067787   -2.137939    0.004939     0.0000    0.0000    0.2354    0.0000


Main Wing Cp Coefficients
 Panel     CtrlPt.x        CtrlPt.y        CtrlPt.z       Nx      Ny       Nz        Area       Cp
Main WingCp Coefficients
Strip 1
  13       7.059e+00      -1.089e+01       4.929e-01           0.149          -0.003          -0.989       7.098e-04         -1.4676
  14       7.022e+00      -1.089e+01       4.903e-01           0.043          -0.034          -0.999       2.065e-03         -1.3412
  15       6.950e+00      -1.089e+01       4.872e-01           0.044          -0.033          -0.998       3.309e-03         -1.0998
  16       6.848e+00      -1.089e+01       4.824e-01           0.048          -0.032          -0.998       4.361e-03         -0.8081
  17       6.720e+00      -1.089e+01       4.759e-01           0.053          -0.030          -0.998       5.161e-03         -0.5583
  18       6.575e+00      -1.089e+01       4.679e-01           0.058          -0.029          -0.998       5.661e-03         -0.3815
  19       6.421e+00      -1.089e+01       4.591e-01           0.056          -0.029          -0.998       5.830e-03         -0.2626
  20       6.268e+00      -1.089e+01       4.510e-01           0.050          -0.032          -0.998       5.659e-03         -0.1770
  21       6.123e+00      -1.089e+01       4.441e-01           0.045          -0.034          -0.998       5.160e-03         -0.1099
  22       5.995e+00      -1.089e+01       4.404e-01           0.010          -0.051          -0.999       4.358e-03         -0.0466
  23       5.893e+00      -1.089e+01       4.436e-01          -0.083          -0.097          -0.992       3.323e-03          0.0598
  24       5.821e+00      -1.089e+01       4.563e-01          -0.306          -0.209          -0.929       2.202e-03          0.2923
  25       5.784e+00      -1.089e+01       4.798e-01          -0.767          -0.428          -0.478       1.411e-03          0.2595
  26       5.784e+00      -1.088e+01       5.125e-01          -0.804          -0.407           0.434       1.687e-03         -1.0788
  27       5.821e+00      -1.088e+01       5.497e-01          -0.544          -0.256           0.799       2.620e-03         -1.4407
  28       5.893e+00      -1.088e+01       5.862e-01          -0.357          -0.156           0.921       3.616e-03         -1.1634
  29       5.995e+00      -1.088e+01       6.163e-01          -0.213          -0.083           0.974       4.487e-03         -0.9728
  30       6.123e+00      -1.088e+01       6.350e-01          -0.085          -0.021           0.996       5.172e-03         -0.8302
  31       6.268e+00      -1.088e+01       6.388e-01           0.027           0.029           0.999       5.641e-03         -0.6895
  32       6.421e+00      -1.088e+01       6.290e-01           0.100           0.060           0.993       5.838e-03         -0.5919
  33       6.575e+00      -1.088e+01       6.094e-01           0.153           0.080           0.985       5.711e-03         -0.5734
  34       6.720e+00      -1.088e+01       5.839e-01           0.196           0.095           0.976       5.255e-03         -0.6372
  35       6.848e+00      -1.088e+01       5.561e-01           0.231           0.107           0.967       4.482e-03         -0.8103
  36       6.950e+00      -1.088e+01       5.302e-01           0.260           0.115           0.959       3.431e-03         -1.1031
  37       7.022e+00      -1.088e+01       5.102e-01           0.281           0.121           0.952       2.156e-03         -1.4193
  38       7.059e+00      -1.088e+01       4.982e-01           0.380           0.148           0.913       7.631e-04         -1.4221
Strip 2
  39       7.039e+00      -1.081e+01       4.895e-01           0.149          -0.003          -0.989       2.155e-03         -0.6024
  40       7.001e+00      -1.081e+01       4.869e-01           0.043          -0.034          -0.999       6.270e-03         -0.5612
  41       6.928e+00      -1.081e+01       4.837e-01           0.044          -0.033          -0.998       1.005e-02         -0.4876
  42       6.824e+00      -1.081e+01       4.788e-01           0.048          -0.032          -0.998       1.324e-02         -0.3867
  43       6.694e+00      -1.081e+01       4.723e-01           0.053          -0.030          -0.998       1.567e-02         -0.2885
  44       6.547e+00      -1.081e+01       4.641e-01           0.058          -0.029          -0.998       1.719e-02         -0.2101
  45       6.391e+00      -1.081e+01       4.552e-01           0.056          -0.029          -0.998       1.770e-02         -0.1473
  46       6.235e+00      -1.081e+01       4.470e-01           0.050          -0.032          -0.998       1.718e-02         -0.0904
  47       6.088e+00      -1.081e+01       4.400e-01           0.045          -0.034          -0.998       1.567e-02         -0.0401
  48       5.959e+00      -1.081e+01       4.363e-01           0.010          -0.051          -0.999       1.323e-02          0.0193
  49       5.855e+00      -1.081e+01       4.394e-01          -0.083          -0.097          -0.992       1.009e-02          0.1493
  50       5.782e+00      -1.081e+01       4.524e-01          -0.306          -0.209          -0.929       6.688e-03          0.4430
  51       5.744e+00      -1.081e+01       4.762e-01          -0.766          -0.428          -0.479       4.284e-03          0.2919
  52       5.744e+00      -1.081e+01       5.094e-01          -0.804          -0.407           0.434       5.123e-03         -1.3895
  53       5.782e+00      -1.081e+01       5.472e-01          -0.544          -0.256           0.799       7.952e-03         -1.7508
  54       5.855e+00      -1.081e+01       5.841e-01          -0.357          -0.156           0.921       1.098e-02         -1.4416
  55       5.959e+00      -1.081e+01       6.147e-01          -0.213          -0.083           0.974       1.362e-02         -1.2049
  56       6.088e+00      -1.080e+01       6.336e-01          -0.085          -0.021           0.996       1.570e-02         -1.0009
  57       6.235e+00      -1.080e+01       6.375e-01           0.027           0.029           0.999       1.713e-02         -0.7888
  58       6.391e+00      -1.080e+01       6.275e-01           0.100           0.060           0.993       1.773e-02         -0.6213
  59       6.547e+00      -1.081e+01       6.077e-01           0.153           0.080           0.985       1.734e-02         -0.5371
  60       6.694e+00      -1.081e+01       5.818e-01           0.196           0.095           0.976       1.596e-02         -0.5214
  61       6.824e+00      -1.081e+01       5.536e-01           0.231           0.107           0.967       1.361e-02         -0.5659
  62       6.928e+00      -1.081e+01       5.274e-01           0.260           0.115           0.959       1.042e-02         -0.6411
  63       7.001e+00      -1.081e+01       5.070e-01           0.281           0.121           0.952       6.547e-03         -0.6854
  64       7.039e+00      -1.081e+01       4.949e-01           0.380           0.148           0.913       2.317e-03         -0.5588
Strip 3
  65       6.997e+00      -1.066e+01       4.827e-01           0.149          -0.003          -0.989       3.677e-03         -0.0013
  66       6.958e+00      -1.066e+01       4.800e-01           0.043          -0.034          -0.999       1.070e-02         -0.0057
  67       6.883e+00      -1.066e+01       4.767e-01           0.044          -0.033          -0.998       1.714e-02         -0.0315
  68       6.776e+00      -1.066e+01       4.718e-01           0.048          -0.032          -0.998       2.259e-02         -0.0456
  69       6.643e+00      -1.066e+01       4.650e-01           0.053          -0.030          -0.998       2.673e-02         -0.0409
  70       6.492e+00      -1.066e+01       4.566e-01           0.058          -0.029          -0.998       2.932e-02         -0.0264
  71       6.331e+00      -1.066e+01       4.475e-01           0.056          -0.029          -0.998       3.020e-02         -0.0035
  72       6.171e+00      -1.066e+01       4.390e-01           0.050          -0.032          -0.998       2.932e-02          0.0320
  73       6.020e+00      -1.066e+01       4.318e-01           0.045          -0.034          -0.998       2.673e-02          0.0764
  74       5.887e+00      -1.066e+01       4.280e-01           0.010          -0.051          -0.999       2.258e-02          0.1535
  75       5.780e+00      -1.066e+01       4.313e-01          -0.083          -0.097          -0.992       1.722e-02          0.3230
  76       5.705e+00      -1.066e+01       4.445e-01          -0.306          -0.209          -0.929       1.141e-02          0.6265
  77       5.666e+00      -1.066e+01       4.691e-01          -0.766          -0.428          -0.479       7.312e-03          0.2959
  78       5.666e+00      -1.066e+01       5.031e-01          -0.804          -0.407           0.433       8.737e-03         -1.7020
  79       5.705e+00      -1.066e+01       5.420e-01          -0.544          -0.256           0.799       1.356e-02         -2.0693
  80       5.780e+00      -1.066e+01       5.800e-01          -0.357          -0.156           0.921       1.872e-02         -1.7309
  81       5.887e+00      -1.066e+01       6.115e-01          -0.213          -0.083           0.974       2.324e-02         -1.4631
  82       6.020e+00      -1.066e+01       6.310e-01          -0.085          -0.021           0.996       2.679e-02         -1.2031
  83       6.171e+00      -1.066e+01       6.350e-01           0.027           0.029           0.999       2.922e-02         -0.9139
  84       6.331e+00      -1.066e+01       6.247e-01           0.100           0.060           0.993       3.024e-02         -0.6611
  85       6.492e+00      -1.066e+01       6.043e-01           0.153           0.080           0.985       2.959e-02         -0.4836
  86       6.643e+00      -1.066e+01       5.776e-01           0.196           0.095           0.976       2.723e-02         -0.3515
  87       6.776e+00      -1.066e+01       5.487e-01           0.231           0.107           0.967       2.322e-02         -0.2379
  88       6.883e+00      -1.066e+01       5.217e-01           0.260           0.115           0.959       1.778e-02         -0.1196
  89       6.958e+00      -1.066e+01       5.007e-01           0.281           0.121           0.952       1.117e-02         -0.0008
  90       6.997e+00      -1.066e+01       4.882e-01           0.380           0.147           0.913       3.954e-03          0.1679
Strip 4
  91       6.935e+00      -1.044e+01       4.726e-01           0.149          -0.003          -0.989       5.322e-03          0.1278
  92       6.894e+00      -1.044e+01       4.698e-01           0.043          -0.034          -0.999       1.549e-02          0.1296
  93       6.816e+00      -1.044e+01       4.664e-01           0.044          -0.033          -0.998       2.481e-02          0.1067
  94       6.705e+00      -1.044e+01       4.612e-01           0.048          -0.032          -0.998       3.270e-02          0.0862
  95       6.566e+00      -1.044e+01       4.542e-01           0.053          -0.030          -0.998       3.870e-02          0.0802
  96       6.409e+00      -1.044e+01       4.454e-01           0.058          -0.029          -0.998       4.245e-02          0.0841
  97       6.242e+00      -1.044e+01       4.360e-01           0.056          -0.029          -0.998       4.372e-02          0.0994
  98       6.075e+00      -1.044e+01       4.271e-01           0.050          -0.032          -0.998       4.244e-02          0.1331
  99       5.918e+00      -1.044e+01       4.196e-01           0.045          -0.034          -0.998       3.869e-02          0.1818
 100       5.779e+00      -1.044e+01       4.156e-01           0.010          -0.051          -0.999       3.268e-02          0.2659
 101       5.667e+00      -1.044e+01       4.190e-01          -0.083          -0.097          -0.992       2.493e-02          0.4351
 102       5.589e+00      -1.044e+01       4.329e-01          -0.306          -0.209          -0.929       1.653e-02          0.7009
 103       5.549e+00      -1.044e+01       4.584e-01          -0.766          -0.428          -0.480       1.059e-02          0.1992
 104       5.549e+00      -1.044e+01       4.939e-01          -0.804          -0.407           0.432       1.264e-02         -1.9971
 105       5.589e+00      -1.044e+01       5.344e-01          -0.544          -0.256           0.799       1.962e-02         -2.3207
 106       5.667e+00      -1.044e+01       5.740e-01          -0.358          -0.156           0.921       2.709e-02         -1.9391
 107       5.779e+00      -1.044e+01       6.067e-01          -0.213          -0.083           0.974       3.363e-02         -1.6549
 108       5.918e+00      -1.044e+01       6.270e-01          -0.085          -0.021           0.996       3.878e-02         -1.3740
 109       6.075e+00      -1.044e+01       6.312e-01           0.027           0.029           0.999       4.231e-02         -1.0463
 110       6.242e+00      -1.044e+01       6.204e-01           0.100           0.060           0.993       4.379e-02         -0.7439
 111       6.409e+00      -1.044e+01       5.992e-01           0.153           0.080           0.985       4.284e-02         -0.5141
 112       6.566e+00      -1.044e+01       5.714e-01           0.196           0.095           0.976       3.942e-02         -0.3305
 113       6.705e+00      -1.044e+01       5.413e-01           0.231           0.107           0.967       3.363e-02         -0.1698
 114       6.816e+00      -1.044e+01       5.132e-01           0.260           0.115           0.959       2.574e-02         -0.0139
 115       6.894e+00      -1.044e+01       4.914e-01           0.280           0.121           0.952       1.618e-02          0.1290
 116       6.935e+00      -1.044e+01       4.784e-01           0.380           0.147           0.913       5.725e-03          0.2997
Strip 5
 117       6.853e+00      -1.015e+01       4.593e-01           0.149          -0.003          -0.989       7.133e-03          0.1716
 118       6.810e+00      -1.015e+01       4.563e-01           0.043          -0.034          -0.999       2.076e-02          0.1789
 119       6.728e+00      -1.015e+01       4.527e-01           0.044          -0.033          -0.998       3.326e-02          0.1633
 120       6.611e+00      -1.015e+01       4.473e-01           0.048          -0.032          -0.998       4.383e-02          0.1467
 121       6.465e+00      -1.015e+01       4.399e-01           0.053          -0.030          -0.998       5.187e-02          0.1426
 122       6.299e+00      -1.015e+01       4.307e-01           0.058          -0.029          -0.998       5.690e-02          0.1480
 123       6.124e+00      -1.015e+01       4.207e-01           0.056          -0.029          -0.998       5.860e-02          0.1653
 124       5.948e+00      -1.015e+01       4.114e-01           0.050          -0.032          -0.998       5.688e-02          0.2008
 125       5.782e+00      -1.015e+01       4.035e-01           0.045          -0.034          -0.998       5.187e-02          0.2503
 126       5.637e+00      -1.015e+01       3.993e-01           0.010          -0.051          -0.999       4.381e-02          0.3332
 127       5.519e+00      -1.015e+01       4.029e-01          -0.083          -0.097          -0.992       3.342e-02          0.4970
 128       5.437e+00      -1.015e+01       4.174e-01          -0.306          -0.209          -0.929       2.217e-02          0.7321
 129       5.394e+00      -1.015e+01       4.443e-01          -0.765          -0.428          -0.481       1.421e-02          0.1066
 130       5.394e+00      -1.015e+01       4.817e-01          -0.805          -0.407           0.431       1.694e-02         -2.2245
 131       5.437e+00      -1.015e+01       5.243e-01          -0.545          -0.256           0.798       2.629e-02         -2.5048
 132       5.519e+00      -1.015e+01       5.659e-01          -0.358          -0.156           0.921       3.630e-02         -2.0831
 133       5.637e+00      -1.014e+01       6.004e-01          -0.213          -0.083           0.974       4.507e-02         -1.7840
 134       5.782e+00      -1.014e+01       6.217e-01          -0.085          -0.021           0.996       5.198e-02         -1.4934
 135       5.948e+00      -1.014e+01       6.261e-01           0.027           0.029           0.999       5.671e-02         -1.1494
 136       6.124e+00      -1.014e+01       6.148e-01           0.100           0.060           0.993       5.870e-02         -0.8244
 137       6.299e+00      -1.014e+01       5.925e-01           0.153           0.080           0.985       5.744e-02         -0.5690
 138       6.465e+00      -1.015e+01       5.633e-01           0.196           0.095           0.976       5.285e-02         -0.3593
 139       6.611e+00      -1.015e+01       5.315e-01           0.231           0.107           0.967       4.509e-02         -0.1743
 140       6.728e+00      -1.015e+01       5.020e-01           0.260           0.115           0.959       3.451e-02          0.0010
 141       6.810e+00      -1.015e+01       4.790e-01           0.280           0.121           0.952       2.169e-02          0.1574
 142       6.853e+00      -1.015e+01       4.653e-01           0.380           0.147           0.913       7.677e-03          0.3307
Strip 6
 143       6.751e+00      -9.788e+00       4.427e-01           0.149          -0.003          -0.989       9.146e-03          0.1900
 144       6.706e+00      -9.788e+00       4.396e-01           0.043          -0.034          -0.999       2.662e-02          0.2013
 145       6.619e+00      -9.788e+00       4.358e-01           0.044          -0.033          -0.998       4.265e-02          0.1917
 146       6.494e+00      -9.788e+00       4.300e-01           0.048          -0.032          -0.998       5.621e-02          0.1797
 147       6.339e+00      -9.788e+00       4.221e-01           0.053          -0.030          -0.998       6.652e-02          0.1790
 148       6.164e+00      -9.789e+00       4.124e-01           0.058          -0.029          -0.998       7.296e-02          0.1871
 149       5.977e+00      -9.789e+00       4.018e-01           0.056          -0.029          -0.998       7.515e-02          0.2062
 150       5.791e+00      -9.789e+00       3.919e-01           0.050          -0.032          -0.998       7.294e-02          0.2420
 151       5.615e+00      -9.790e+00       3.836e-01           0.045          -0.034          -0.998       6.651e-02          0.2907
 152       5.460e+00      -9.790e+00       3.791e-01           0.010          -0.051          -0.999       5.618e-02          0.3716
 153       5.336e+00      -9.790e+00       3.829e-01          -0.083          -0.097          -0.992       4.286e-02          0.5315
 154       5.248e+00      -9.789e+00       3.983e-01          -0.306          -0.208          -0.929       2.844e-02          0.7460
 155       5.203e+00      -9.788e+00       4.269e-01          -0.765          -0.428          -0.482       1.823e-02          0.0432
 156       5.203e+00      -9.787e+00       4.665e-01          -0.805          -0.408           0.430       2.171e-02         -2.3722
 157       5.248e+00      -9.785e+00       5.117e-01          -0.545          -0.257           0.798       3.369e-02         -2.6235
 158       5.336e+00      -9.784e+00       5.560e-01          -0.358          -0.156           0.920       4.653e-02         -2.1743
 159       5.460e+00      -9.783e+00       5.925e-01          -0.213          -0.083           0.974       5.779e-02         -1.8644
 160       5.615e+00      -9.782e+00       6.152e-01          -0.085          -0.021           0.996       6.665e-02         -1.5678
 161       5.791e+00      -9.782e+00       6.199e-01           0.027           0.029           0.999       7.273e-02         -1.2160
 162       5.977e+00      -9.782e+00       6.079e-01           0.100           0.060           0.993       7.529e-02         -0.8804
 163       6.164e+00      -9.783e+00       5.842e-01           0.153           0.080           0.985       7.368e-02         -0.6126
 164       6.339e+00      -9.784e+00       5.531e-01           0.196           0.095           0.976       6.780e-02         -0.3891
 165       6.494e+00      -9.785e+00       5.195e-01           0.231           0.107           0.967       5.783e-02         -0.1905
 166       6.619e+00      -9.786e+00       4.881e-01           0.260           0.115           0.959       4.427e-02         -0.0037
 167       6.706e+00      -9.787e+00       4.637e-01           0.280           0.121           0.952       2.782e-02          0.1613
 168       6.751e+00      -9.787e+00       4.492e-01           0.379           0.147           0.913       9.849e-03          0.3369
Strip 7
 169       6.631e+00      -9.359e+00       4.232e-01           0.149          -0.003          -0.989       1.139e-02          0.1991
 170       6.582e+00      -9.359e+00       4.198e-01           0.043          -0.034          -0.999       3.315e-02          0.2130
 171       6.489e+00      -9.359e+00       4.157e-01           0.044          -0.033          -0.998       5.311e-02          0.2073
 172       6.356e+00      -9.359e+00       4.095e-01           0.048          -0.032          -0.998       7.000e-02          0.1988
 173       6.191e+00      -9.360e+00       4.011e-01           0.053          -0.030          -0.998       8.283e-02          0.2006
 174       6.003e+00      -9.360e+00       3.907e-01           0.058          -0.029          -0.998       9.086e-02          0.2104
 175       5.804e+00      -9.360e+00       3.794e-01           0.056          -0.029          -0.998       9.358e-02          0.2301
 176       5.604e+00      -9.361e+00       3.688e-01           0.050          -0.032          -0.998       9.084e-02          0.2656
 177       5.417e+00      -9.361e+00       3.599e-01           0.045          -0.034          -0.998       8.283e-02          0.3130
 178       5.251e+00      -9.361e+00       3.551e-01           0.010          -0.051          -0.999       6.997e-02          0.3921
 179       5.118e+00      -9.361e+00       3.592e-01          -0.083          -0.097          -0.992       5.339e-02          0.5493
 180       5.025e+00      -9.360e+00       3.757e-01          -0.306          -0.208          -0.929       3.544e-02          0.7527
 181       4.977e+00      -9.359e+00       4.062e-01          -0.764          -0.427          -0.483       2.272e-02          0.0132
 182       4.977e+00      -9.358e+00       4.486e-01          -0.806          -0.408           0.429       2.702e-02         -2.4452
 183       5.025e+00      -9.357e+00       4.969e-01          -0.546          -0.257           0.798       4.192e-02         -2.6844
 184       5.118e+00      -9.355e+00       5.442e-01          -0.358          -0.157           0.920       5.792e-02         -2.2224
 185       5.251e+00      -9.354e+00       5.833e-01          -0.213          -0.083           0.974       7.194e-02         -1.9080
 186       5.417e+00      -9.353e+00       6.075e-01          -0.085          -0.021           0.996       8.299e-02         -1.6088
 187       5.604e+00      -9.353e+00       6.125e-01           0.027           0.029           0.999       9.059e-02         -1.2535
 188       5.804e+00      -9.354e+00       5.997e-01           0.100           0.060           0.993       9.379e-02         -0.9133
 189       6.003e+00      -9.354e+00       5.743e-01           0.153           0.080           0.985       9.178e-02         -0.6396
 190       6.191e+00      -9.355e+00       5.412e-01           0.196           0.095           0.976       8.446e-02         -0.4092
 191       6.356e+00      -9.357e+00       5.052e-01           0.231           0.107           0.967       7.205e-02         -0.2033
 192       6.489e+00      -9.358e+00       4.716e-01           0.260           0.115           0.959       5.515e-02         -0.0101
 193       6.582e+00      -9.358e+00       4.456e-01           0.280           0.121           0.952       3.466e-02          0.1601
 194       6.631e+00      -9.359e+00       4.300e-01           0.379           0.147           0.913       1.227e-02          0.3372
Strip 8
 195       6.492e+00      -8.866e+00       4.007e-01           0.149          -0.003          -0.989       1.388e-02          0.2040
 196       6.441e+00      -8.867e+00       3.970e-01           0.043          -0.034          -0.999       4.041e-02          0.2195
 197       6.340e+00      -8.867e+00       3.927e-01           0.044          -0.033          -0.998       6.474e-02          0.2162
 198       6.197e+00      -8.867e+00       3.860e-01           0.048          -0.032          -0.998       8.532e-02          0.2098
 199       6.020e+00      -8.867e+00       3.770e-01           0.053          -0.030          -0.998       1.010e-01          0.2129
 200       5.818e+00      -8.867e+00       3.658e-01           0.058          -0.029          -0.998       1.107e-01          0.2233
 201       5.604e+00      -8.868e+00       3.536e-01           0.056          -0.029          -0.998       1.141e-01          0.2431
 202       5.390e+00      -8.868e+00       3.423e-01           0.050          -0.032          -0.998       1.107e-01          0.2777
 203       5.189e+00      -8.868e+00       3.327e-01           0.045          -0.034          -0.998       1.010e-01          0.3238
 204       5.011e+00      -8.868e+00       3.276e-01           0.010          -0.051          -0.999       8.528e-02          0.4012
 205       4.868e+00      -8.868e+00       3.320e-01          -0.083          -0.097          -0.992       6.508e-02          0.5563
 206       4.768e+00      -8.868e+00       3.497e-01          -0.305          -0.208          -0.929       4.322e-02          0.7564
 207       4.716e+00      -8.867e+00       3.824e-01          -0.764          -0.427          -0.484       2.771e-02          0.0133
 208       4.716e+00      -8.866e+00       4.279e-01          -0.806          -0.408           0.428       3.292e-02         -2.4555
 209       4.768e+00      -8.864e+00       4.799e-01          -0.546          -0.257           0.797       5.106e-02         -2.6984
 210       4.868e+00      -8.863e+00       5.306e-01          -0.359          -0.157           0.920       7.055e-02         -2.2372
 211       5.011e+00      -8.862e+00       5.726e-01          -0.213          -0.083           0.973       8.766e-02         -1.9242
 212       5.189e+00      -8.861e+00       5.986e-01          -0.085          -0.021           0.996       1.011e-01         -1.6261
 213       5.390e+00      -8.861e+00       6.039e-01           0.027           0.029           0.999       1.104e-01         -1.2708
 214       5.604e+00      -8.861e+00       5.902e-01           0.100           0.060           0.993       1.143e-01         -0.9293
 215       5.818e+00      -8.862e+00       5.630e-01           0.153           0.080           0.985       1.119e-01         -0.6535
 216       6.020e+00      -8.863e+00       5.274e-01           0.196           0.095           0.976       1.030e-01         -0.4200
 217       6.197e+00      -8.864e+00       4.887e-01           0.231           0.107           0.967       8.784e-02         -0.2107
 218       6.340e+00      -8.865e+00       4.527e-01           0.260           0.115           0.959       6.724e-02         -0.0144
 219       6.441e+00      -8.866e+00       4.247e-01           0.280           0.121           0.952       4.226e-02          0.1585
 220       6.492e+00      -8.866e+00       4.080e-01           0.379           0.147           0.914       1.496e-02          0.3364
Strip 9
 221       6.337e+00      -8.313e+00       3.754e-01           0.149          -0.003          -0.989       1.663e-02          0.2069
 222       6.281e+00      -8.314e+00       3.715e-01           0.043          -0.034          -0.999       4.841e-02          0.2231
 223       6.173e+00      -8.314e+00       3.668e-01           0.044          -0.033          -0.998       7.755e-02          0.2210
 224       6.019e+00      -8.314e+00       3.596e-01           0.048          -0.032          -0.998       1.022e-01          0.2156
 225       5.828e+00      -8.314e+00       3.499e-01           0.053          -0.030          -0.998       1.209e-01          0.2193
 226       5.611e+00      -8.314e+00       3.378e-01           0.058          -0.029          -0.998       1.327e-01          0.2298
 227       5.380e+00      -8.315e+00       3.247e-01           0.056          -0.029          -0.998       1.366e-01          0.2490
 228       5.150e+00      -8.315e+00       3.125e-01           0.050          -0.032          -0.998       1.326e-01          0.2827
 229       4.933e+00      -8.315e+00       3.022e-01           0.045          -0.034          -0.998       1.209e-01          0.3273
 230       4.742e+00      -8.315e+00       2.967e-01           0.010          -0.051          -0.999       1.022e-01          0.4026
 231       4.588e+00      -8.315e+00       3.014e-01          -0.083          -0.097          -0.992       7.798e-02          0.5557
 232       4.480e+00      -8.315e+00       3.205e-01          -0.305          -0.208          -0.929       5.180e-02          0.7584
 233       4.424e+00      -8.314e+00       3.558e-01          -0.763          -0.427          -0.485       3.322e-02          0.0368
 234       4.424e+00      -8.313e+00       4.048e-01          -0.807          -0.409           0.427       3.941e-02         -2.4166
 235       4.480e+00      -8.311e+00       4.607e-01          -0.546          -0.257           0.797       6.112e-02         -2.6757
 236       4.588e+00      -8.310e+00       5.154e-01          -0.359          -0.157           0.920       8.447e-02         -2.2266
 237       4.742e+00      -8.309e+00       5.606e-01          -0.213          -0.083           0.973       1.050e-01         -1.9204
 238       4.933e+00      -8.309e+00       5.886e-01          -0.085          -0.021           0.996       1.212e-01         -1.6265
 239       5.150e+00      -8.308e+00       5.944e-01           0.027           0.029           0.999       1.323e-01         -1.2739
 240       5.380e+00      -8.309e+00       5.796e-01           0.100           0.060           0.993       1.370e-01         -0.9338
 241       5.611e+00      -8.309e+00       5.503e-01           0.153           0.080           0.985       1.341e-01         -0.6583
 242       5.828e+00      -8.310e+00       5.119e-01           0.196           0.095           0.976       1.234e-01         -0.4243
 243       6.019e+00      -8.311e+00       4.703e-01           0.231           0.107           0.967       1.053e-01         -0.2139
 244       6.173e+00      -8.312e+00       4.315e-01           0.260           0.115           0.959       8.057e-02         -0.0163
 245       6.281e+00      -8.313e+00       4.013e-01           0.280           0.121           0.952       5.064e-02          0.1577
 246       6.337e+00      -8.313e+00       3.833e-01           0.379           0.147           0.914       1.793e-02          0.3357
Strip 10
 247       6.165e+00      -7.704e+00       3.475e-01           0.149          -0.003          -0.989       1.962e-02          0.2085
 248       6.105e+00      -7.704e+00       3.433e-01           0.043          -0.034          -0.999       5.714e-02          0.2251
 249       5.989e+00      -7.704e+00       3.383e-01           0.044          -0.033          -0.998       9.154e-02          0.2235
 250       5.823e+00      -7.704e+00       3.305e-01           0.048          -0.032          -0.998       1.206e-01          0.2184
 251       5.617e+00      -7.704e+00       3.200e-01           0.053          -0.030          -0.998       1.428e-01          0.2221
 252       5.382e+00      -7.704e+00       3.070e-01           0.058          -0.029          -0.998       1.566e-01          0.2321
 253       5.134e+00      -7.705e+00       2.929e-01           0.056          -0.029          -0.998       1.613e-01          0.2505
 254       4.885e+00      -7.705e+00       2.797e-01           0.050          -0.032          -0.998       1.566e-01          0.2829
 255       4.650e+00      -7.705e+00       2.686e-01           0.045          -0.034          -0.998       1.427e-01          0.3257
 256       4.444e+00      -7.705e+00       2.626e-01           0.010          -0.051          -0.999       1.206e-01          0.3987
 257       4.278e+00      -7.705e+00       2.677e-01          -0.083          -0.097          -0.992       9.207e-02          0.5496
 258       4.162e+00      -7.705e+00       2.883e-01          -0.305          -0.208          -0.929       6.118e-02          0.7590
 259       4.102e+00      -7.704e+00       3.264e-01          -0.763          -0.427          -0.486       3.925e-02          0.0778
 260       4.102e+00      -7.703e+00       3.792e-01          -0.807          -0.409           0.425       4.650e-02         -2.3401
 261       4.162e+00      -7.702e+00       4.396e-01          -0.547          -0.258           0.797       7.210e-02         -2.6249
 262       4.278e+00      -7.701e+00       4.986e-01          -0.359          -0.157           0.920       9.967e-02         -2.1970
 263       4.444e+00      -7.700e+00       5.474e-01          -0.213          -0.083           0.973       1.239e-01         -1.9018
 264       4.650e+00      -7.699e+00       5.777e-01          -0.085          -0.021           0.996       1.430e-01         -1.6149
 265       4.885e+00      -7.699e+00       5.839e-01           0.027           0.029           0.999       1.562e-01         -1.2673
 266       5.134e+00      -7.699e+00       5.679e-01           0.100           0.060           0.993       1.617e-01         -0.9307
 267       5.382e+00      -7.700e+00       5.362e-01           0.153           0.080           0.985       1.583e-01         -0.6571
 268       5.617e+00      -7.701e+00       4.949e-01           0.196           0.095           0.976       1.457e-01         -0.4241
 269       5.823e+00      -7.702e+00       4.499e-01           0.231           0.107           0.967       1.243e-01         -0.2141
 270       5.989e+00      -7.702e+00       4.080e-01           0.260           0.115           0.959       9.514e-02         -0.0167
 271       6.105e+00      -7.703e+00       3.755e-01           0.280           0.121           0.952       5.979e-02          0.1573
 272       6.165e+00      -7.703e+00       3.561e-01           0.379           0.147           0.914       2.117e-02          0.3349
Strip 11
 273       5.979e+00      -7.041e+00       3.173e-01           0.149          -0.003          -0.989       2.286e-02          0.2094
 274       5.914e+00      -7.041e+00       3.127e-01           0.043          -0.034          -0.999       6.656e-02          0.2260
 275       5.789e+00      -7.041e+00       3.072e-01           0.044          -0.033          -0.998       1.066e-01          0.2245
 276       5.609e+00      -7.041e+00       2.989e-01           0.048          -0.032          -0.998       1.405e-01          0.2192
 277       5.387e+00      -7.042e+00       2.876e-01           0.053          -0.030          -0.998       1.663e-01          0.2224
 278       5.134e+00      -7.042e+00       2.735e-01           0.058          -0.029          -0.998       1.824e-01          0.2317
 279       4.865e+00      -7.042e+00       2.583e-01           0.056          -0.029          -0.998       1.879e-01          0.2489
 280       4.597e+00      -7.042e+00       2.441e-01           0.050          -0.032          -0.998       1.824e-01          0.2798
 281       4.344e+00      -7.043e+00       2.320e-01           0.045          -0.034          -0.998       1.663e-01          0.3206
 282       4.121e+00      -7.043e+00       2.256e-01           0.010          -0.051          -0.999       1.405e-01          0.3907
 283       3.942e+00      -7.043e+00       2.310e-01          -0.083          -0.097          -0.992       1.073e-01          0.5393
 284       3.816e+00      -7.042e+00       2.533e-01          -0.305          -0.208          -0.929       7.131e-02          0.7579
 285       3.751e+00      -7.041e+00       2.944e-01          -0.762          -0.426          -0.487       4.575e-02          0.1313
 286       3.751e+00      -7.041e+00       3.515e-01          -0.808          -0.409           0.424       5.414e-02         -2.2350
 287       3.816e+00      -7.039e+00       4.167e-01          -0.547          -0.258           0.796       8.393e-02         -2.5524
 288       3.942e+00      -7.038e+00       4.804e-01          -0.359          -0.157           0.920       1.160e-01         -2.1526
 289       4.121e+00      -7.038e+00       5.331e-01          -0.213          -0.083           0.973       1.443e-01         -1.8720
 290       4.344e+00      -7.037e+00       5.657e-01          -0.085          -0.021           0.996       1.666e-01         -1.5945
 291       4.597e+00      -7.037e+00       5.724e-01           0.027           0.029           0.999       1.819e-01         -1.2538
 292       4.865e+00      -7.037e+00       5.552e-01           0.100           0.060           0.993       1.884e-01         -0.9221
 293       5.134e+00      -7.038e+00       5.210e-01           0.153           0.080           0.985       1.844e-01         -0.6518
 294       5.387e+00      -7.038e+00       4.763e-01           0.196           0.095           0.976       1.697e-01         -0.4210
 295       5.609e+00      -7.039e+00       4.278e-01           0.231           0.107           0.967       1.448e-01         -0.2124
 296       5.789e+00      -7.040e+00       3.826e-01           0.260           0.115           0.959       1.109e-01         -0.0160
 297       5.914e+00      -7.041e+00       3.475e-01           0.280           0.121           0.952       6.967e-02          0.1574
 298       5.979e+00      -7.041e+00       3.265e-01           0.379           0.147           0.914       2.467e-02          0.3344
Strip 12
 299       5.780e+00      -6.331e+00       2.848e-01           0.149          -0.003          -0.989       2.630e-02          0.2099
 300       5.710e+00      -6.331e+00       2.799e-01           0.043          -0.034          -0.999       7.659e-02          0.2263
 301       5.574e+00      -6.331e+00       2.740e-01           0.044          -0.033          -0.998       1.227e-01          0.2244
 302       5.381e+00      -6.331e+00       2.650e-01           0.048          -0.032          -0.998       1.617e-01          0.2187
 303       5.140e+00      -6.331e+00       2.528e-01           0.053          -0.030          -0.998       1.914e-01          0.2212
 304       4.867e+00      -6.331e+00       2.376e-01           0.058          -0.029          -0.998       2.099e-01          0.2294
 305       4.578e+00      -6.331e+00       2.211e-01           0.056          -0.029          -0.998       2.162e-01          0.2453
 306       4.288e+00      -6.332e+00       2.058e-01           0.050          -0.032          -0.998       2.098e-01          0.2744
 307       4.015e+00      -6.332e+00       1.928e-01           0.045          -0.034          -0.998       1.913e-01          0.3127
 308       3.775e+00      -6.332e+00       1.858e-01           0.010          -0.051          -0.999       1.617e-01          0.3796
 309       3.581e+00      -6.332e+00       1.917e-01          -0.083          -0.097          -0.992       1.235e-01          0.5252
 310       3.446e+00      -6.332e+00       2.158e-01          -0.305          -0.208          -0.929       8.209e-02          0.7544
 311       3.376e+00      -6.331e+00       2.601e-01          -0.762          -0.426          -0.488       5.267e-02          0.1934
 312       3.376e+00      -6.330e+00       3.218e-01          -0.808          -0.410           0.423       6.227e-02         -2.1075
 313       3.446e+00      -6.329e+00       3.921e-01          -0.548          -0.258           0.796       9.653e-02         -2.4623
 314       3.581e+00      -6.328e+00       4.608e-01          -0.359          -0.157           0.920       1.335e-01         -2.0963
 315       3.775e+00      -6.327e+00       5.177e-01          -0.214          -0.083           0.973       1.660e-01         -1.8334
 316       4.015e+00      -6.327e+00       5.529e-01          -0.085          -0.021           0.996       1.917e-01         -1.5672
 317       4.288e+00      -6.327e+00       5.601e-01           0.027           0.029           0.999       2.094e-01         -1.2350
 318       4.578e+00      -6.327e+00       5.415e-01           0.100           0.060           0.993       2.169e-01         -0.9096
 319       4.867e+00      -6.327e+00       5.047e-01           0.153           0.080           0.985       2.123e-01         -0.6437
 320       5.140e+00      -6.328e+00       4.564e-01           0.196           0.095           0.976       1.954e-01         -0.4158
 321       5.381e+00      -6.329e+00       4.041e-01           0.231           0.107           0.967       1.667e-01         -0.2094
 322       5.574e+00      -6.330e+00       3.553e-01           0.260           0.115           0.959       1.276e-01         -0.0146
 323       5.710e+00      -6.330e+00       3.174e-01           0.280           0.121           0.952       8.019e-02          0.1578
 324       5.780e+00      -6.330e+00       2.948e-01           0.379           0.147           0.914       2.840e-02          0.3340
Strip 13
 325       5.568e+00      -5.577e+00       2.504e-01           0.149          -0.003          -0.989       2.992e-02          0.2100
 326       5.492e+00      -5.577e+00       2.451e-01           0.043          -0.034          -0.999       8.713e-02          0.2261
 327       5.346e+00      -5.577e+00       2.387e-01           0.044          -0.033          -0.998       1.396e-01          0.2237
 328       5.138e+00      -5.577e+00       2.290e-01           0.048          -0.032          -0.998       1.840e-01          0.2173
 329       4.879e+00      -5.577e+00       2.158e-01           0.053          -0.030          -0.998       2.177e-01          0.2189
 330       4.585e+00      -5.577e+00       1.995e-01           0.058          -0.029          -0.998       2.387e-01          0.2258
 331       4.273e+00      -5.578e+00       1.817e-01           0.056          -0.029          -0.998       2.459e-01          0.2400
 332       3.960e+00      -5.578e+00       1.652e-01           0.050          -0.032          -0.998       2.387e-01          0.2672
 333       3.666e+00      -5.578e+00       1.512e-01           0.045          -0.034          -0.998       2.176e-01          0.3026
 334       3.407e+00      -5.578e+00       1.437e-01           0.010          -0.051          -0.999       1.839e-01          0.3657
 335       3.199e+00      -5.578e+00       1.501e-01          -0.083          -0.097          -0.992       1.404e-01          0.5075
 336       3.053e+00      -5.578e+00       1.759e-01          -0.305          -0.208          -0.929       9.342e-02          0.7481
 337       2.977e+00      -5.577e+00       2.238e-01          -0.761          -0.426          -0.489       5.995e-02          0.2613
 338       2.977e+00      -5.576e+00       2.902e-01          -0.809          -0.410           0.422       7.081e-02         -1.9614
 339       3.053e+00      -5.575e+00       3.660e-01          -0.548          -0.258           0.796       1.097e-01         -2.3571
 340       3.199e+00      -5.575e+00       4.401e-01          -0.360          -0.157           0.920       1.518e-01         -2.0300
 341       3.407e+00      -5.574e+00       5.013e-01          -0.214          -0.083           0.973       1.888e-01         -1.7874
 342       3.666e+00      -5.573e+00       5.393e-01          -0.085          -0.021           0.996       2.180e-01         -1.5343
 343       3.960e+00      -5.573e+00       5.471e-01           0.027           0.029           0.999       2.382e-01         -1.2121
 344       4.273e+00      -5.574e+00       5.271e-01           0.100           0.060           0.993       2.467e-01         -0.8942
 345       4.585e+00      -5.574e+00       4.873e-01           0.153           0.080           0.985       2.415e-01         -0.6333
 346       4.879e+00      -5.575e+00       4.354e-01           0.196           0.095           0.976       2.223e-01         -0.4090
 347       5.138e+00      -5.575e+00       3.789e-01           0.231           0.107           0.967       1.896e-01         -0.2055
 348       5.346e+00      -5.576e+00       3.263e-01           0.260           0.115           0.959       1.452e-01         -0.0127
 349       5.492e+00      -5.576e+00       2.855e-01           0.280           0.121           0.952       9.124e-02          0.1582
 350       5.568e+00      -5.577e+00       2.611e-01           0.379           0.147           0.914       3.231e-02          0.3334
Strip 14
 351       5.345e+00      -4.785e+00       2.142e-01           0.149          -0.003          -0.989       3.365e-02          0.2099
 352       5.264e+00      -4.785e+00       2.085e-01           0.043          -0.034          -0.999       9.801e-02          0.2256
 353       5.107e+00      -4.785e+00       2.017e-01           0.044          -0.033          -0.998       1.570e-01          0.2224
 354       4.883e+00      -4.785e+00       1.912e-01           0.048          -0.032          -0.998       2.069e-01          0.2152
 355       4.604e+00      -4.785e+00       1.771e-01           0.053          -0.030          -0.998       2.449e-01          0.2158
 356       4.288e+00      -4.785e+00       1.595e-01           0.058          -0.029          -0.998       2.686e-01          0.2212
 357       3.952e+00      -4.786e+00       1.404e-01           0.056          -0.029          -0.998       2.766e-01          0.2336
 358       3.616e+00      -4.786e+00       1.226e-01           0.050          -0.032          -0.998       2.685e-01          0.2584
 359       3.300e+00      -4.786e+00       1.075e-01           0.045          -0.034          -0.998       2.448e-01          0.2906
 360       3.021e+00      -4.786e+00       9.945e-02           0.010          -0.051          -0.999       2.069e-01          0.3490
 361       2.797e+00      -4.786e+00       1.063e-01          -0.083          -0.097          -0.992       1.580e-01          0.4863
 362       2.640e+00      -4.786e+00       1.341e-01          -0.305          -0.208          -0.930       1.051e-01          0.7379
 363       2.559e+00      -4.785e+00       1.856e-01          -0.761          -0.426          -0.489       6.747e-02          0.3335
 364       2.559e+00      -4.784e+00       2.570e-01          -0.809          -0.410           0.422       7.962e-02         -1.7985
 365       2.640e+00      -4.784e+00       3.386e-01          -0.548          -0.258           0.795       1.234e-01         -2.2379
 366       2.797e+00      -4.783e+00       4.183e-01          -0.360          -0.157           0.920       1.707e-01         -1.9541
 367       3.021e+00      -4.782e+00       4.842e-01          -0.214          -0.083           0.973       2.123e-01         -1.7344
 368       3.300e+00      -4.782e+00       5.251e-01          -0.085          -0.021           0.996       2.452e-01         -1.4963
 369       3.616e+00      -4.782e+00       5.334e-01           0.027           0.029           0.999       2.679e-01         -1.1856
 370       3.952e+00      -4.782e+00       5.119e-01           0.100           0.060           0.993       2.776e-01         -0.8762
 371       4.288e+00      -4.783e+00       4.691e-01           0.153           0.080           0.985       2.717e-01         -0.6212
 372       4.604e+00      -4.783e+00       4.132e-01           0.196           0.095           0.976       2.501e-01         -0.4013
 373       4.883e+00      -4.784e+00       3.525e-01           0.231           0.107           0.967       2.134e-01         -0.2010
 374       5.107e+00      -4.784e+00       2.959e-01           0.260           0.115           0.959       1.633e-01         -0.0107
 375       5.264e+00      -4.784e+00       2.520e-01           0.280           0.121           0.952       1.027e-01          0.1586
 376       5.345e+00      -4.785e+00       2.258e-01           0.379           0.147           0.914       3.636e-02          0.3326
Strip 15
 377       5.114e+00      -3.960e+00       1.765e-01           0.149          -0.003          -0.989       3.745e-02          0.2095
 378       5.027e+00      -3.960e+00       1.704e-01           0.043          -0.034          -0.999       1.091e-01          0.2248
 379       4.858e+00      -3.960e+00       1.631e-01           0.044          -0.033          -0.998       1.748e-01          0.2208
 380       4.617e+00      -3.960e+00       1.519e-01           0.048          -0.032          -0.998       2.303e-01          0.2127
 381       4.318e+00      -3.961e+00       1.367e-01           0.053          -0.030          -0.998       2.725e-01          0.2120
 382       3.979e+00      -3.961e+00       1.178e-01           0.058          -0.029          -0.998       2.989e-01          0.2158
 383       3.618e+00      -3.961e+00       9.727e-02           0.056          -0.029          -0.998       3.078e-01          0.2260
 384       3.258e+00      -3.961e+00       7.819e-02           0.050          -0.032          -0.998       2.988e-01          0.2482
 385       2.918e+00      -3.961e+00       6.202e-02           0.045          -0.034          -0.998       2.725e-01          0.2766
 386       2.619e+00      -3.961e+00       5.336e-02           0.010          -0.051          -0.999       2.302e-01          0.3297
 387       2.378e+00      -3.961e+00       6.070e-02          -0.083          -0.097          -0.992       1.759e-01          0.4610
 388       2.210e+00      -3.961e+00       9.058e-02          -0.305          -0.208          -0.930       1.170e-01          0.7228
 389       2.123e+00      -3.960e+00       1.458e-01          -0.761          -0.426          -0.490       7.512e-02          0.4088
 390       2.123e+00      -3.960e+00       2.225e-01          -0.809          -0.410           0.421       8.858e-02         -1.6184
 391       2.210e+00      -3.959e+00       3.100e-01          -0.548          -0.259           0.795       1.373e-01         -2.1035
 392       2.378e+00      -3.959e+00       3.956e-01          -0.360          -0.157           0.920       1.899e-01         -1.8679
 393       2.619e+00      -3.958e+00       4.663e-01          -0.214          -0.083           0.973       2.362e-01         -1.6742
 394       2.918e+00      -3.958e+00       5.102e-01          -0.085          -0.021           0.996       2.729e-01         -1.4533
 395       3.258e+00      -3.958e+00       5.192e-01           0.027           0.029           0.999       2.982e-01         -1.1559
 396       3.618e+00      -3.958e+00       4.960e-01           0.100           0.060           0.993       3.089e-01         -0.8563
 397       3.979e+00      -3.958e+00       4.501e-01           0.153           0.080           0.985       3.025e-01         -0.6081
 398       4.318e+00      -3.959e+00       3.901e-01           0.196           0.095           0.976       2.784e-01         -0.3931
 399       4.617e+00      -3.959e+00       3.250e-01           0.231           0.107           0.967       2.375e-01         -0.1963
 400       4.858e+00      -3.960e+00       2.642e-01           0.259           0.115           0.959       1.818e-01         -0.0086
 401       5.027e+00      -3.960e+00       2.171e-01           0.280           0.121           0.952       1.143e-01          0.1587
 402       5.114e+00      -3.960e+00       1.890e-01           0.378           0.147           0.914       4.047e-02          0.3315
Strip 16
 403       4.874e+00      -3.109e+00       1.376e-01           0.149          -0.003          -0.989       4.124e-02          0.2086
 404       4.781e+00      -3.109e+00       1.311e-01           0.043          -0.034          -0.999       1.201e-01          0.2235
 405       4.601e+00      -3.109e+00       1.232e-01           0.044          -0.033          -0.998       1.925e-01          0.2188
 406       4.343e+00      -3.109e+00       1.112e-01           0.048          -0.032          -0.998       2.536e-01          0.2097
 407       4.023e+00      -3.109e+00       9.494e-02           0.053          -0.030          -0.998       3.001e-01          0.2077
 408       3.659e+00      -3.109e+00       7.472e-02           0.058          -0.029          -0.998       3.292e-01          0.2098
 409       3.273e+00      -3.109e+00       5.277e-02           0.056          -0.029          -0.998       3.390e-01          0.2176
 410       2.887e+00      -3.109e+00       3.234e-02           0.050          -0.032          -0.998       3.291e-01          0.2368
 411       2.524e+00      -3.109e+00       1.503e-02           0.045          -0.034          -0.998       3.001e-01          0.2608
 412       2.204e+00      -3.109e+00       5.755e-03           0.010          -0.051          -0.999       2.536e-01          0.3074
 413       1.946e+00      -3.109e+00       1.362e-02          -0.083          -0.097          -0.992       1.937e-01          0.4309
 414       1.766e+00      -3.109e+00       4.560e-02          -0.304          -0.208          -0.930       1.289e-01          0.7010
 415       1.673e+00      -3.109e+00       1.047e-01          -0.760          -0.426          -0.491       8.277e-02          0.4870
 416       1.673e+00      -3.108e+00       1.869e-01          -0.809          -0.410           0.420       9.753e-02         -1.4174
 417       1.766e+00      -3.108e+00       2.805e-01          -0.549          -0.259           0.795       1.511e-01         -1.9498
 418       1.946e+00      -3.107e+00       3.721e-01          -0.360          -0.157           0.920       2.091e-01         -1.7686
 419       2.204e+00      -3.107e+00       4.479e-01          -0.214          -0.083           0.973       2.601e-01         -1.6051
 420       2.524e+00      -3.107e+00       4.949e-01          -0.085          -0.021           0.996       3.005e-01         -1.4046
 421       2.887e+00      -3.107e+00       5.045e-01           0.027           0.029           0.999       3.285e-01         -1.1231
 422       3.273e+00      -3.107e+00       4.797e-01           0.100           0.060           0.993       3.403e-01         -0.8353
 423       3.659e+00      -3.107e+00       4.306e-01           0.153           0.080           0.985       3.331e-01         -0.5950
 424       4.023e+00      -3.107e+00       3.663e-01           0.196           0.095           0.976       3.066e-01         -0.3853
 425       4.343e+00      -3.108e+00       2.966e-01           0.231           0.107           0.967       2.616e-01         -0.1922
 426       4.601e+00      -3.108e+00       2.315e-01           0.259           0.115           0.959       2.003e-01         -0.0072
 427       4.781e+00      -3.108e+00       1.811e-01           0.280           0.121           0.952       1.259e-01          0.1582
 428       4.874e+00      -3.109e+00       1.509e-01           0.378           0.147           0.914       4.458e-02          0.3296
Strip 17
 429       4.629e+00      -2.236e+00       9.773e-02           0.149          -0.003          -0.989       4.495e-02          0.2074
 430       4.530e+00      -2.236e+00       9.077e-02           0.043          -0.034          -0.999       1.310e-01          0.2219
 431       4.337e+00      -2.236e+00       8.236e-02           0.044          -0.033          -0.998       2.098e-01          0.2164
 432       4.062e+00      -2.236e+00       6.958e-02           0.048          -0.032          -0.998       2.765e-01          0.2065
 433       3.720e+00      -2.236e+00       5.218e-02           0.053          -0.030          -0.998       3.271e-01          0.2033
 434       3.332e+00      -2.236e+00       3.059e-02           0.058          -0.029          -0.998       3.588e-01          0.2035
 435       2.920e+00      -2.236e+00       7.157e-03           0.056          -0.029          -0.998       3.695e-01          0.2088
 436       2.508e+00      -2.236e+00      -1.465e-02           0.050          -0.032          -0.998       3.587e-01          0.2246
 437       2.120e+00      -2.236e+00      -3.313e-02           0.045          -0.034          -0.998       3.271e-01          0.2435
 438       1.779e+00      -2.236e+00      -4.303e-02           0.010          -0.051          -0.999       2.764e-01          0.2821
 439       1.503e+00      -2.236e+00      -3.464e-02          -0.083          -0.097          -0.992       2.112e-01          0.3948
 440       1.310e+00      -2.236e+00      -4.931e-04          -0.304          -0.208          -0.930       1.406e-01          0.6698
 441       1.211e+00      -2.236e+00       6.264e-02          -0.760          -0.425          -0.491       9.026e-02          0.5690
 442       1.211e+00      -2.236e+00       1.503e-01          -0.810          -0.410           0.420       1.063e-01         -1.1859
 443       1.310e+00      -2.235e+00       2.503e-01          -0.549          -0.259           0.795       1.647e-01         -1.7671
 444       1.503e+00      -2.235e+00       3.481e-01          -0.360          -0.157           0.920       2.279e-01         -1.6488
 445       1.779e+00      -2.235e+00       4.290e-01          -0.214          -0.083           0.973       2.835e-01         -1.5222
 446       2.120e+00      -2.234e+00       4.791e-01          -0.085          -0.021           0.996       3.276e-01         -1.3481
 447       2.508e+00      -2.234e+00       4.894e-01           0.027           0.029           0.999       3.581e-01         -1.0877
 448       2.920e+00      -2.234e+00       4.629e-01           0.100           0.060           0.993       3.710e-01         -0.8151
 449       3.332e+00      -2.235e+00       4.105e-01           0.153           0.080           0.985       3.632e-01         -0.5844
 450       3.720e+00      -2.235e+00       3.419e-01           0.196           0.095           0.976       3.343e-01         -0.3803
 451       4.062e+00      -2.235e+00       2.674e-01           0.231           0.107           0.967       2.852e-01         -0.1906
 452       4.337e+00      -2.235e+00       1.980e-01           0.259           0.115           0.959       2.183e-01         -0.0078
 453       4.530e+00      -2.236e+00       1.441e-01           0.280           0.121           0.952       1.372e-01          0.1565
 454       4.629e+00      -2.236e+00       1.119e-01           0.378           0.147           0.914       4.861e-02          0.3269
Strip 18
 455       4.379e+00      -1.348e+00       5.715e-02           0.149          -0.003          -0.989       4.851e-02          0.2051
 456       4.274e+00      -1.348e+00       4.975e-02           0.043          -0.034          -0.999       1.413e-01          0.2195
 457       4.068e+00      -1.348e+00       4.079e-02           0.044          -0.033          -0.998       2.264e-01          0.2136
 458       3.776e+00      -1.348e+00       2.719e-02           0.048          -0.032          -0.998       2.984e-01          0.2029
 459       3.412e+00      -1.348e+00       8.668e-03           0.053          -0.030          -0.998       3.530e-01          0.1987
 460       2.999e+00      -1.348e+00      -1.430e-02           0.058          -0.029          -0.998       3.872e-01          0.1973
 461       2.561e+00      -1.348e+00      -3.925e-02           0.056          -0.029          -0.998       3.988e-01          0.2006
 462       2.122e+00      -1.348e+00      -6.247e-02           0.050          -0.032          -0.998       3.871e-01          0.2132
 463       1.709e+00      -1.348e+00      -8.214e-02           0.045          -0.034          -0.998       3.530e-01          0.2264
 464       1.346e+00      -1.348e+00      -9.268e-02           0.010          -0.051          -0.999       2.983e-01          0.2551
 465       1.053e+00      -1.348e+00      -8.374e-02          -0.083          -0.097          -0.992       2.279e-01          0.3529
 466       8.473e-01      -1.348e+00      -4.740e-02          -0.304          -0.208          -0.930       1.517e-01          0.6265
 467       7.416e-01      -1.348e+00       1.980e-02          -0.760          -0.425          -0.492       9.743e-02          0.6595
 468       7.416e-01      -1.347e+00       1.131e-01          -0.810          -0.411           0.419       1.147e-01         -0.9018
 469       8.473e-01      -1.347e+00       2.196e-01          -0.549          -0.259           0.795       1.776e-01         -1.5301
 470       1.053e+00      -1.347e+00       3.237e-01          -0.360          -0.158           0.920       2.458e-01         -1.4891
 471       1.346e+00      -1.347e+00       4.098e-01          -0.214          -0.083           0.973       3.059e-01         -1.4123
 472       1.709e+00      -1.347e+00       4.631e-01          -0.085          -0.021           0.996       3.535e-01         -1.2774
 473       2.122e+00      -1.347e+00       4.741e-01           0.027           0.029           0.999       3.864e-01         -1.0498
 474       2.561e+00      -1.347e+00       4.459e-01           0.100           0.060           0.993       4.004e-01         -0.8005
 475       2.999e+00      -1.347e+00       3.900e-01           0.153           0.080           0.985       3.920e-01         -0.5830
 476       3.412e+00      -1.347e+00       3.171e-01           0.196           0.095           0.976       3.608e-01         -0.3850
 477       3.776e+00      -1.347e+00       2.378e-01           0.231           0.107           0.967       3.078e-01         -0.1968
 478       4.068e+00      -1.347e+00       1.639e-01           0.259           0.115           0.959       2.357e-01         -0.0134
 479       4.274e+00      -1.347e+00       1.065e-01           0.280           0.121           0.952       1.481e-01          0.1518
 480       4.379e+00      -1.348e+00       7.229e-02           0.378           0.147           0.914       5.247e-02          0.3225
Strip 19
 481       4.127e+00      -4.502e-01       1.616e-02           0.149          -0.003          -0.989       5.182e-02          0.2019
 482       4.015e+00      -4.502e-01       8.304e-03           0.043          -0.034          -0.999       1.510e-01          0.2153
 483       3.797e+00      -4.502e-01      -1.203e-03           0.044          -0.033          -0.998       2.419e-01          0.2075
 484       3.486e+00      -4.502e-01      -1.564e-02           0.048          -0.032          -0.998       3.188e-01          0.1951
 485       3.101e+00      -4.502e-01      -3.529e-02           0.053          -0.030          -0.998       3.772e-01          0.1908
 486       2.663e+00      -4.503e-01      -5.967e-02           0.058          -0.029          -0.998       4.137e-01          0.1905
 487       2.197e+00      -4.503e-01      -8.614e-02           0.056          -0.029          -0.998       4.260e-01          0.1950
 488       1.732e+00      -4.503e-01      -1.108e-01           0.050          -0.032          -0.998       4.136e-01          0.2082
 489       1.294e+00      -4.503e-01      -1.316e-01           0.045          -0.034          -0.998       3.771e-01          0.2198
 490       9.080e-01      -4.503e-01      -1.428e-01           0.010          -0.051          -0.999       3.187e-01          0.2420
 491       5.972e-01      -4.503e-01      -1.334e-01          -0.083          -0.097          -0.992       2.435e-01          0.3223
 492       3.794e-01      -4.503e-01      -9.478e-02          -0.304          -0.208          -0.930       1.622e-01          0.5718
 493       2.673e-01      -4.502e-01      -2.348e-02          -0.760          -0.425          -0.492       1.041e-01          0.7419
 494       2.673e-01      -4.502e-01       7.554e-02          -0.810          -0.411           0.419       1.225e-01         -0.5014
 495       3.794e-01      -4.501e-01       1.885e-01          -0.549          -0.259           0.794       1.897e-01         -1.1383
 496       5.972e-01      -4.500e-01       2.990e-01          -0.360          -0.158           0.919       2.626e-01         -1.1983
 497       9.080e-01      -4.500e-01       3.903e-01          -0.214          -0.083           0.973       3.268e-01         -1.2251
 498       1.294e+00      -4.500e-01       4.470e-01          -0.085          -0.021           0.996       3.777e-01         -1.1726
 499       1.732e+00      -4.499e-01       4.586e-01           0.027           0.029           0.999       4.128e-01         -1.0123
 500       2.197e+00      -4.500e-01       4.287e-01           0.100           0.060           0.993       4.278e-01         -0.8074
 501       2.663e+00      -4.500e-01       3.694e-01           0.153           0.080           0.985       4.188e-01         -0.6129
 502       3.101e+00      -4.500e-01       2.919e-01           0.196           0.095           0.976       3.855e-01         -0.4224
 503       3.486e+00      -4.501e-01       2.079e-01           0.231           0.107           0.967       3.289e-01         -0.2307
 504       3.797e+00      -4.501e-01       1.294e-01           0.259           0.115           0.959       2.518e-01         -0.0373
 505       4.015e+00      -4.502e-01       6.857e-02           0.280           0.121           0.952       1.583e-01          0.1383
 506       4.127e+00      -4.502e-01       3.222e-02           0.378           0.147           0.914       5.606e-02          0.3148
Strip 20
 507       4.127e+00       4.502e-01       1.616e-02           0.149           0.003          -0.989       5.182e-02          0.2019
 508       4.015e+00       4.502e-01       8.304e-03           0.043           0.034          -0.999       1.510e-01          0.2153
 509       3.797e+00       4.502e-01      -1.203e-03           0.044           0.033          -0.998       2.419e-01          0.2075
 510       3.486e+00       4.502e-01      -1.564e-02           0.048           0.032          -0.998       3.188e-01          0.1951
 511       3.101e+00       4.502e-01      -3.529e-02           0.053           0.030          -0.998       3.772e-01          0.1908
 512       2.663e+00       4.503e-01      -5.967e-02           0.058           0.029          -0.998       4.137e-01          0.1905
 513       2.197e+00       4.503e-01      -8.614e-02           0.056           0.029          -0.998       4.260e-01          0.1950
 514       1.732e+00       4.503e-01      -1.108e-01           0.050           0.032          -0.998       4.136e-01          0.2082
 515       1.294e+00       4.503e-01      -1.316e-01           0.045           0.034          -0.998       3.771e-01          0.2198
 516       9.080e-01       4.503e-01      -1.428e-01           0.010           0.051          -0.999       3.187e-01          0.2420
 517       5.972e-01       4.503e-01      -1.334e-01          -0.083           0.097          -0.992       2.435e-01          0.3223
 518       3.794e-01       4.503e-01      -9.478e-02          -0.304           0.208          -0.930       1.622e-01          0.5718
 519       2.673e-01       4.502e-01      -2.348e-02          -0.760           0.425          -0.492       1.041e-01          0.7419
 520       2.673e-01       4.502e-01       7.554e-02          -0.810           0.411           0.419       1.225e-01         -0.5014
 521       3.794e-01       4.501e-01       1.885e-01          -0.549           0.259           0.794       1.897e-01         -1.1383
 522       5.972e-01       4.500e-01       2.990e-01          -0.360           0.158           0.919       2.626e-01         -1.1983
 523       9.080e-01       4.500e-01       3.903e-01          -0.214           0.083           0.973       3.268e-01         -1.2251
 524       1.294e+00       4.500e-01       4.470e-01          -0.085           0.021           0.996       3.777e-01         -1.1726
 525       1.732e+00       4.499e-01       4.586e-01           0.027          -0.029           0.999       4.128e-01         -1.0123
 526       2.197e+00       4.500e-01       4.287e-01           0.100          -0.060           0.993       4.278e-01         -0.8074
 527       2.663e+00       4.500e-01       3.694e-01           0.153          -0.080           0.985       4.188e-01         -0.6129
 528       3.101e+00       4.500e-01       2.919e-01           0.196          -0.095           0.976       3.855e-01         -0.4224
 529       3.486e+00       4.501e-01       2.079e-01           0.231          -0.107           0.967       3.289e-01         -0.2307
 530       3.797e+00       4.501e-01       1.294e-01           0.259          -0.115           0.959       2.518e-01         -0.0373
 531       4.015e+00       4.502e-01       6.857e-02           0.280          -0.121           0.952       1.583e-01          0.1383
 532       4.127e+00       4.502e-01       3.222e-02           0.378          -0.147           0.914       5.606e-02          0.3148
Strip 21
 533       4.379e+00       1.348e+00       5.715e-02           0.149           0.003          -0.989       4.851e-02          0.2051
 534       4.274e+00       1.348e+00       4.975e-02           0.043           0.034          -0.999       1.413e-01          0.2195
 535       4.068e+00       1.348e+00       4.079e-02           0.044           0.033          -0.998       2.264e-01          0.2136
 536       3.776e+00       1.348e+00       2.719e-02           0.048           0.032          -0.998       2.984e-01          0.2029
 537       3.412e+00       1.348e+00       8.668e-03           0.053           0.030          -0.998       3.530e-01          0.1987
 538       2.999e+00       1.348e+00      -1.430e-02           0.058           0.029          -0.998       3.872e-01          0.1973
 539       2.561e+00       1.348e+00      -3.925e-02           0.056           0.029          -0.998       3.988e-01          0.2006
 540       2.122e+00       1.348e+00      -6.247e-02           0.050           0.032          -0.998       3.871e-01          0.2132
 541       1.709e+00       1.348e+00      -8.214e-02           0.045           0.034          -0.998       3.530e-01          0.2264
 542       1.346e+00       1.348e+00      -9.268e-02           0.010           0.051          -0.999       2.983e-01          0.2551
 543       1.053e+00       1.348e+00      -8.374e-02          -0.083           0.097          -0.992       2.279e-01          0.3529
 544       8.473e-01       1.348e+00      -4.740e-02          -0.304           0.208          -0.930       1.517e-01          0.6265
 545       7.416e-01       1.348e+00       1.980e-02          -0.760           0.425          -0.492       9.743e-02          0.6595
 546       7.416e-01       1.347e+00       1.131e-01          -0.810           0.411           0.419       1.147e-01         -0.9018
 547       8.473e-01       1.347e+00       2.196e-01          -0.549           0.259           0.795       1.776e-01         -1.5301
 548       1.053e+00       1.347e+00       3.237e-01          -0.360           0.158           0.920       2.458e-01         -1.4891
 549       1.346e+00       1.347e+00       4.098e-01          -0.214           0.083           0.973       3.059e-01         -1.4123
 550       1.709e+00       1.347e+00       4.631e-01          -0.085           0.021           0.996       3.535e-01         -1.2774
 551       2.122e+00       1.347e+00       4.741e-01           0.027          -0.029           0.999       3.864e-01         -1.0498
 552       2.561e+00       1.347e+00       4.459e-01           0.100          -0.060           0.993       4.004e-01         -0.8005
 553       2.999e+00       1.347e+00       3.900e-01           0.153          -0.080           0.985       3.920e-01         -0.5830
 554       3.412e+00       1.347e+00       3.171e-01           0.196          -0.095           0.976       3.608e-01         -0.3850
 555       3.776e+00       1.347e+00       2.378e-01           0.231          -0.107           0.967       3.078e-01         -0.1968
 556       4.068e+00       1.347e+00       1.639e-01           0.259          -0.115           0.959       2.357e-01         -0.0134
 557       4.274e+00       1.347e+00       1.065e-01           0.280          -0.121           0.952       1.481e-01          0.1518
 558       4.379e+00       1.348e+00       7.229e-02           0.378          -0.147           0.914       5.247e-02          0.3225
Strip 22
 559       4.629e+00       2.236e+00       9.773e-02           0.149           0.003          -0.989       4.495e-02          0.2074
 560       4.530e+00       2.236e+00       9.077e-02           0.043           0.034          -0.999       1.310e-01          0.2219
 561       4.337e+00       2.236e+00       8.236e-02           0.044           0.033          -0.998       2.098e-01          0.2164
 562       4.062e+00       2.236e+00       6.958e-02           0.048           0.032          -0.998       2.765e-01          0.2065
 563       3.720e+00       2.236e+00       5.218e-02           0.053           0.030          -0.998       3.271e-01          0.2033
[...]
 853       5.615e+00       9.790e+00       3.836e-01           0.045           0.034          -0.998       6.651e-02          0.2907
 854       5.460e+00       9.790e+00       3.791e-01           0.010           0.051          -0.999       5.618e-02          0.3716
 855       5.336e+00       9.790e+00       3.829e-01          -0.083           0.097          -0.992       4.286e-02          0.5315
 856       5.248e+00       9.789e+00       3.983e-01          -0.306           0.208          -0.929       2.844e-02          0.7460
 857       5.203e+00       9.788e+00       4.269e-01          -0.765           0.428          -0.482       1.823e-02          0.0432
 858       5.203e+00       9.787e+00       4.665e-01          -0.805           0.408           0.430       2.171e-02         -2.3722
 859       5.248e+00       9.785e+00       5.117e-01          -0.545           0.257           0.798       3.369e-02         -2.6235
 860       5.336e+00       9.784e+00       5.560e-01          -0.358           0.156           0.920       4.653e-02         -2.1743
 861       5.460e+00       9.783e+00       5.925e-01          -0.213           0.083           0.974       5.779e-02         -1.8644
 862       5.615e+00       9.782e+00       6.152e-01          -0.085           0.021           0.996       6.665e-02         -1.5678
 863       5.791e+00       9.782e+00       6.199e-01           0.027          -0.029           0.999       7.273e-02         -1.2160
 864       5.977e+00       9.782e+00       6.079e-01           0.100          -0.060           0.993       7.529e-02         -0.8804
 865       6.164e+00       9.783e+00       5.842e-01           0.153          -0.080           0.985       7.368e-02         -0.6126
 866       6.339e+00       9.784e+00       5.531e-01           0.196          -0.095           0.976       6.780e-02         -0.3891
 867       6.494e+00       9.785e+00       5.195e-01           0.231          -0.107           0.967       5.783e-02         -0.1905
 868       6.619e+00       9.786e+00       4.881e-01           0.260          -0.115           0.959       4.427e-02         -0.0037
 869       6.706e+00       9.787e+00       4.637e-01           0.280          -0.121           0.952       2.782e-02          0.1613
 870       6.751e+00       9.787e+00       4.492e-01           0.379          -0.147           0.913       9.849e-03          0.3369
Strip 34
 871       6.853e+00       1.015e+01       4.593e-01           0.149           0.003          -0.989       7.133e-03          0.1716
 872       6.810e+00       1.015e+01       4.563e-01           0.043           0.034          -0.999       2.076e-02          0.1789
 873       6.728e+00       1.015e+01       4.527e-01           0.044           0.033          -0.998       3.326e-02          0.1633
 874       6.611e+00       1.015e+01       4.473e-01           0.048           0.032          -0.998       4.383e-02          0.1467
 875       6.465e+00       1.015e+01       4.399e-01           0.053           0.030          -0.998       5.187e-02          0.1426
 876       6.299e+00       1.015e+01       4.307e-01           0.058           0.029          -0.998       5.690e-02          0.1480
 877       6.124e+00       1.015e+01       4.207e-01           0.056           0.029          -0.998       5.860e-02          0.1653
 878       5.948e+00       1.015e+01       4.114e-01           0.050           0.032          -0.998       5.688e-02          0.2008
 879       5.782e+00       1.015e+01       4.035e-01           0.045           0.034          -0.998       5.187e-02          0.2503
 880       5.637e+00       1.015e+01       3.993e-01           0.010           0.051          -0.999       4.381e-02          0.3332
 881       5.519e+00       1.015e+01       4.029e-01          -0.083           0.097          -0.992       3.342e-02          0.4970
 882       5.437e+00       1.015e+01       4.174e-01          -0.306           0.209          -0.929       2.217e-02          0.7321
 883       5.394e+00       1.015e+01       4.443e-01          -0.765           0.428          -0.481       1.421e-02          0.1066
 884       5.394e+00       1.015e+01       4.817e-01          -0.805           0.407           0.431       1.694e-02         -2.2245
 885       5.437e+00       1.015e+01       5.243e-01          -0.545           0.256           0.798       2.629e-02         -2.5048
 886       5.519e+00       1.015e+01       5.659e-01          -0.358           0.156           0.921       3.630e-02         -2.0831
 887       5.637e+00       1.014e+01       6.004e-01          -0.213           0.083           0.974       4.507e-02         -1.7840
 888       5.782e+00       1.014e+01       6.217e-01          -0.085           0.021           0.996       5.198e-02         -1.4934
 889       5.948e+00       1.014e+01       6.261e-01           0.027          -0.029           0.999       5.671e-02         -1.1494
 890       6.124e+00       1.014e+01       6.148e-01           0.100          -0.060           0.993       5.870e-02         -0.8244
 891       6.299e+00       1.014e+01       5.925e-01           0.153          -0.080           0.985       5.744e-02         -0.5690
 892       6.465e+00       1.015e+01       5.633e-01           0.196          -0.095           0.976       5.285e-02         -0.3593
 893       6.611e+00       1.015e+01       5.315e-01           0.231          -0.107           0.967       4.509e-02         -0.1743
 894       6.728e+00       1.015e+01       5.020e-01           0.260          -0.115           0.959       3.451e-02          0.0010
 895       6.810e+00       1.015e+01       4.790e-01           0.280          -0.121           0.952       2.169e-02          0.1574
 896       6.853e+00       1.015e+01       4.653e-01           0.380          -0.147           0.913       7.677e-03          0.3307
Strip 35
 897       6.935e+00       1.044e+01       4.726e-01           0.149           0.003          -0.989       5.322e-03          0.1278
 898       6.894e+00       1.044e+01       4.698e-01           0.043           0.034          -0.999       1.549e-02          0.1296
 899       6.816e+00       1.044e+01       4.664e-01           0.044           0.033          -0.998       2.481e-02          0.1067
 900       6.705e+00       1.044e+01       4.612e-01           0.048           0.032          -0.998       3.270e-02          0.0862
 901       6.566e+00       1.044e+01       4.542e-01           0.053           0.030          -0.998       3.870e-02          0.0802
 902       6.409e+00       1.044e+01       4.454e-01           0.058           0.029          -0.998       4.245e-02          0.0841
 903       6.242e+00       1.044e+01       4.360e-01           0.056           0.029          -0.998       4.372e-02          0.0994
 904       6.075e+00       1.044e+01       4.271e-01           0.050           0.032          -0.998       4.244e-02          0.1331
 905       5.918e+00       1.044e+01       4.196e-01           0.045           0.034          -0.998       3.869e-02          0.1818
 906       5.779e+00       1.044e+01       4.156e-01           0.010           0.051          -0.999       3.268e-02          0.2659
 907       5.667e+00       1.044e+01       4.190e-01          -0.083           0.097          -0.992       2.493e-02          0.4351
 908       5.589e+00       1.044e+01       4.329e-01          -0.306           0.209          -0.929       1.653e-02          0.7009
 909       5.549e+00       1.044e+01       4.584e-01          -0.766           0.428          -0.480       1.059e-02          0.1992
 910       5.549e+00       1.044e+01       4.939e-01          -0.804           0.407           0.432       1.264e-02         -1.9971
 911       5.589e+00       1.044e+01       5.344e-01          -0.544           0.256           0.799       1.962e-02         -2.3207
 912       5.667e+00       1.044e+01       5.740e-01          -0.358           0.156           0.921       2.709e-02         -1.9391
 913       5.779e+00       1.044e+01       6.067e-01          -0.213           0.083           0.974       3.363e-02         -1.6549
 914       5.918e+00       1.044e+01       6.270e-01          -0.085           0.021           0.996       3.878e-02         -1.3740
 915       6.075e+00       1.044e+01       6.312e-01           0.027          -0.029           0.999       4.231e-02         -1.0463
 916       6.242e+00       1.044e+01       6.204e-01           0.100          -0.060           0.993       4.379e-02         -0.7439
 917       6.409e+00       1.044e+01       5.992e-01           0.153          -0.080           0.985       4.284e-02         -0.5141
 918       6.566e+00       1.044e+01       5.714e-01           0.196          -0.095           0.976       3.942e-02         -0.3305
 919       6.705e+00       1.044e+01       5.413e-01           0.231          -0.107           0.967       3.363e-02         -0.1698
 920       6.816e+00       1.044e+01       5.132e-01           0.260          -0.115           0.959       2.574e-02         -0.0139
 921       6.894e+00       1.044e+01       4.914e-01           0.280          -0.121           0.952       1.618e-02          0.1290
 922       6.935e+00       1.044e+01       4.784e-01           0.380          -0.147           0.913       5.725e-03          0.2997
Strip 36
 923       6.997e+00       1.066e+01       4.827e-01           0.149           0.003          -0.989       3.677e-03         -0.0013
 924       6.958e+00       1.066e+01       4.800e-01           0.043           0.034          -0.999       1.070e-02         -0.0057
 925       6.883e+00       1.066e+01       4.767e-01           0.044           0.033          -0.998       1.714e-02         -0.0315
 926       6.776e+00       1.066e+01       4.718e-01           0.048           0.032          -0.998       2.259e-02         -0.0456
 927       6.643e+00       1.066e+01       4.650e-01           0.053           0.030          -0.998       2.673e-02         -0.0409
 928       6.492e+00       1.066e+01       4.566e-01           0.058           0.029          -0.998       2.932e-02         -0.0264
 929       6.331e+00       1.066e+01       4.475e-01           0.056           0.029          -0.998       3.020e-02         -0.0035
 930       6.171e+00       1.066e+01       4.390e-01           0.050           0.032          -0.998       2.932e-02          0.0320
 931       6.020e+00       1.066e+01       4.318e-01           0.045           0.034          -0.998       2.673e-02          0.0764
 932       5.887e+00       1.066e+01       4.280e-01           0.010           0.051          -0.999       2.258e-02          0.1535
 933       5.780e+00       1.066e+01       4.313e-01          -0.083           0.097          -0.992       1.722e-02          0.3230
 934       5.705e+00       1.066e+01       4.445e-01          -0.306           0.209          -0.929       1.141e-02          0.6265
 935       5.666e+00       1.066e+01       4.691e-01          -0.766           0.428          -0.479       7.312e-03          0.2959
 936       5.666e+00       1.066e+01       5.031e-01          -0.804           0.407           0.433       8.737e-03         -1.7020
 937       5.705e+00       1.066e+01       5.420e-01          -0.544           0.256           0.799       1.356e-02         -2.0693
 938       5.780e+00       1.066e+01       5.800e-01          -0.357           0.156           0.921       1.872e-02         -1.7309
 939       5.887e+00       1.066e+01       6.115e-01          -0.213           0.083           0.974       2.324e-02         -1.4631
 940       6.020e+00       1.066e+01       6.310e-01          -0.085           0.021           0.996       2.679e-02         -1.2031
 941       6.171e+00       1.066e+01       6.350e-01           0.027          -0.029           0.999       2.922e-02         -0.9139
 942       6.331e+00       1.066e+01       6.247e-01           0.100          -0.060           0.993       3.024e-02         -0.6611
 943       6.492e+00       1.066e+01       6.043e-01           0.153          -0.080           0.985       2.959e-02         -0.4836
 944       6.643e+00       1.066e+01       5.776e-01           0.196          -0.095           0.976       2.723e-02         -0.3515
 945       6.776e+00       1.066e+01       5.487e-01           0.231          -0.107           0.967       2.322e-02         -0.2379
 946       6.883e+00       1.066e+01       5.217e-01           0.260          -0.115           0.959       1.778e-02         -0.1196
 947       6.958e+00       1.066e+01       5.007e-01           0.281          -0.121           0.952       1.117e-02         -0.0008
 948       6.997e+00       1.066e+01       4.882e-01           0.380          -0.147           0.913       3.954e-03          0.1679
Strip 37
 949       7.039e+00       1.081e+01       4.895e-01           0.149           0.003          -0.989       2.155e-03         -0.6024
 950       7.001e+00       1.081e+01       4.869e-01           0.043           0.034          -0.999       6.270e-03         -0.5612
 951       6.928e+00       1.081e+01       4.837e-01           0.044           0.033          -0.998       1.005e-02         -0.4876
 952       6.824e+00       1.081e+01       4.788e-01           0.048           0.032          -0.998       1.324e-02         -0.3867
 953       6.694e+00       1.081e+01       4.723e-01           0.053           0.030          -0.998       1.567e-02         -0.2885
 954       6.547e+00       1.081e+01       4.641e-01           0.058           0.029          -0.998       1.719e-02         -0.2101
 955       6.391e+00       1.081e+01       4.552e-01           0.056           0.029          -0.998       1.770e-02         -0.1473
 956       6.235e+00       1.081e+01       4.470e-01           0.050           0.032          -0.998       1.718e-02         -0.0904
 957       6.088e+00       1.081e+01       4.400e-01           0.045           0.034          -0.998       1.567e-02         -0.0401
 958       5.959e+00       1.081e+01       4.363e-01           0.010           0.051          -0.999       1.323e-02          0.0193
 959       5.855e+00       1.081e+01       4.394e-01          -0.083           0.097          -0.992       1.009e-02          0.1493
 960       5.782e+00       1.081e+01       4.524e-01          -0.306           0.209          -0.929       6.688e-03          0.4430
 961       5.744e+00       1.081e+01       4.762e-01          -0.766           0.428          -0.479       4.284e-03          0.2919
 962       5.744e+00       1.081e+01       5.094e-01          -0.804           0.407           0.434       5.123e-03         -1.3895
 963       5.782e+00       1.081e+01       5.472e-01          -0.544           0.256           0.799       7.952e-03         -1.7508
 964       5.855e+00       1.081e+01       5.841e-01          -0.357           0.156           0.921       1.098e-02         -1.4416
 965       5.959e+00       1.081e+01       6.147e-01          -0.213           0.083           0.974       1.362e-02         -1.2049
 966       6.088e+00       1.080e+01       6.336e-01          -0.085           0.021           0.996       1.570e-02         -1.0009
 967       6.235e+00       1.080e+01       6.375e-01           0.027          -0.029           0.999       1.713e-02         -0.7888
 968       6.391e+00       1.080e+01       6.275e-01           0.100          -0.060           0.993       1.773e-02         -0.6213
 969       6.547e+00       1.081e+01       6.077e-01           0.153          -0.080           0.985       1.734e-02         -0.5371
 970       6.694e+00       1.081e+01       5.818e-01           0.196          -0.095           0.976       1.596e-02         -0.5214
 971       6.824e+00       1.081e+01       5.536e-01           0.231          -0.107           0.967       1.361e-02         -0.5659
 972       6.928e+00       1.081e+01       5.274e-01           0.260          -0.115           0.959       1.042e-02         -0.6411
 973       7.001e+00       1.081e+01       5.070e-01           0.281          -0.121           0.952       6.547e-03         -0.6854
 974       7.039e+00       1.081e+01       4.949e-01           0.380          -0.148           0.913       2.317e-03         -0.5588
Strip 38
 975       7.059e+00       1.089e+01       4.929e-01           0.149           0.003          -0.989       7.098e-04         -1.4676
 976       7.022e+00       1.089e+01       4.903e-01           0.043           0.034          -0.999       2.065e-03         -1.3412
 977       6.950e+00       1.089e+01       4.872e-01           0.044           0.033          -0.998       3.309e-03         -1.0998
 978       6.848e+00       1.089e+01       4.824e-01           0.048           0.032          -0.998       4.361e-03         -0.8081
 979       6.720e+00       1.089e+01       4.759e-01           0.053           0.030          -0.998       5.161e-03         -0.5583
 980       6.575e+00       1.089e+01       4.679e-01           0.058           0.029          -0.998       5.661e-03         -0.3815
 981       6.421e+00       1.089e+01       4.591e-01           0.056           0.029          -0.998       5.830e-03         -0.2626
 982       6.268e+00       1.089e+01       4.510e-01           0.050           0.032          -0.998       5.659e-03         -0.1770
 983       6.123e+00       1.089e+01       4.441e-01           0.045           0.034          -0.998       5.160e-03         -0.1099
 984       5.995e+00       1.089e+01       4.404e-01           0.010           0.051          -0.999       4.358e-03         -0.0466
 985       5.893e+00       1.089e+01       4.436e-01          -0.083           0.097          -0.992       3.323e-03          0.0598
 986       5.821e+00       1.089e+01       4.563e-01          -0.306           0.209          -0.929       2.202e-03          0.2923
 987       5.784e+00       1.089e+01       4.798e-01          -0.767           0.428          -0.478       1.411e-03          0.2595
 988       5.784e+00       1.088e+01       5.125e-01          -0.804           0.407           0.434       1.687e-03         -1.0788
 989       5.821e+00       1.088e+01       5.497e-01          -0.544           0.256           0.799       2.620e-03         -1.4407
 990       5.893e+00       1.088e+01       5.862e-01          -0.357           0.156           0.921       3.616e-03         -1.1634
 991       5.995e+00       1.088e+01       6.163e-01          -0.213           0.083           0.974       4.487e-03         -0.9728
 992       6.123e+00       1.088e+01       6.350e-01          -0.085           0.021           0.996       5.172e-03         -0.8302
 993       6.268e+00       1.088e+01       6.388e-01           0.027          -0.029           0.999       5.641e-03         -0.6895
 994       6.421e+00       1.088e+01       6.290e-01           0.100          -0.060           0.993       5.838e-03         -0.5919
 995       6.575e+00       1.088e+01       6.094e-01           0.153          -0.080           0.985       5.711e-03         -0.5734
 996       6.720e+00       1.088e+01       5.839e-01           0.196          -0.095           0.976       5.255e-03         -0.6372
 997       6.848e+00       1.088e+01       5.561e-01           0.231          -0.107           0.967       4.482e-03         -0.8103
 998       6.950e+00       1.088e+01       5.302e-01           0.260          -0.115           0.959       3.431e-03         -1.1031
 999       7.022e+00       1.088e+01       5.102e-01           0.281          -0.121           0.952       2.156e-03         -1.4193
1000       7.059e+00       1.088e+01       4.982e-01           0.380          -0.148           0.913       7.631e-04         -1.4221










